Circuit: * Z:\home\frohro\Classes\Intro to Engineering\2026\Intro-to-CAD-2026\Frohne\Docs\DAC_Amp.asc

Direct Newton iteration for .op point succeeded.

Date: Thu Feb 12 07:54:55 2026
Total elapsed time: 1.732 seconds.

tnom = 27
temp = 27
method = modified trap
totiter = 67693
traniter = 67686
tranpoints = 25044
accept = 16108
rejected = 8936
matrix size = 32
fillins = 30
solver = Normal
Matrix Compiler1: 2.40 KB object code size  2.6/1.3/[1.0]
Matrix Compiler2: 3.23 KB object code size  1.4/2.0/[1.2]

