LTspice 26.0.1 for Windows
Circuit: Z:\home\frohro\Classes\Intro to Engineering\2026\Intro-to-CAD-2026\Frohne\Docs\DAC_Amp.net
Start Time: Thu Feb 12 13:57:57 2026
solver = Normal
Maximum thread count: 16
tnom = 27
temp = 27
method = trap
Direct Newton iteration succeeded in finding operating point.
Total elapsed time: 2.445 seconds.

Files loaded:
Z:\home\frohro\Classes\Intro to Engineering\2026\Intro-to-CAD-2026\Frohne\Docs\DAC_Amp.net
C:\users\frohro\AppData\Local\LTspice\lib\cmp\standard.dio
C:\users\frohro\AppData\Local\LTspice\lib\cmp\standard.bjt
Z:\home\frohro\Classes\Intro to Engineering\2026\Intro-to-CAD-2026\Frohne\Docs\OPA161x.LIB

