LTspice 24.0.12 for Windows
Circuit: * Z:\home\frohro\Classes\Intro to Engineering\2026\Intro-to-CAD-2026\Frohne\Docs\TayloeDetectorAmplifier_Balanced_2026._OPA161x.asc
Start Time: Fri Feb 13 05:16:27 2026
solver = Normal
Maximum thread count: 8
tnom = 27
temp = 27
method = Gear
WARNING: Less than two connections to node n007.  This node is used by v5.
Direct Newton iteration failed to find .op point.  (Use ".option noopiter" to skip.)
Starting Gmin stepping
Gmin = 10
Gmin = 1.07374
vernier = 0.5
vernier = 0.25
vernier = 0.125
vernier = 0.0625
Gmin = 0.898294
vernier = 0.03125
vernier = 0.0416667
Gmin = 0.833269
vernier = 0.0555555
Gmin = 0.735938
vernier = 0.074074
vernier = 0.0987653
Gmin = 0.597937
vernier = 0.131687
vernier = 0.175583
Gmin = 0.430279
vernier = 0.23411
Gmin = 0.257578
vernier = 0.312147
vernier = 0.416196
Gmin = 0.110447
vernier = 0.554928
vernier = 0.277464
Gmin = 0.0442531
vernier = 0.138732
vernier = 0.0693659
vernier = 0.034683
vernier = 0.0173415
vernier = 0.00867074
Gmin = 0.0442531
vernier = 0.00433537
vernier = 0.00216769
vernier = 0.00108384
Gmin = 0.0441573
vernier = 0.000541921
vernier = 0.000406441
Gmin = 0
Gmin stepping failed

Starting source stepping with srcstepmethod=0
Source Step = 3.0303%
vernier = 0.25
Source Step = 1.70455%
Source Step = 3.59848%
Source Step = 5.49242%
Source Step = 7.38636%
Source Step = 9.2803%
vernier = 0.09375
Source Step = 11.9318%
Source Step = 14.7727%
Source Step = 15.3631%
Source Step = 15.4075%
Source Step = 15.4519%
Source Step = 15.4963%
Source Step = 15.5407%
Source Step = 15.585%
vernier = 0.00219727
Source Step = 15.6494%
Source Step = 15.716%
Source Step = 15.7826%
Source Step = 15.8492%
Source Step = 15.9157%
vernier = 0.0032959
Source Step = 16.009%
Source Step = 16.1088%
Source Step = 16.2087%
Source Step = 16.3086%
Source Step = 16.4085%
vernier = 0.00494385
Source Step = 16.5433%
Source Step = 16.6931%
Source Step = 16.8429%
Source Step = 16.9927%
Source Step = 17.1426%
vernier = 0.00741577
Source Step = 17.3373%
Source Step = 17.562%
Source Step = 17.7868%
Source Step = 18.0115%
Source Step = 18.2362%
vernier = 0.0111237
Source Step = 18.5171%
Source Step = 18.8542%
Source Step = 19.1913%
Source Step = 19.5283%
Source Step = 19.8654%
vernier = 0.0166855
Source Step = 20.2699%
Source Step = 20.7755%
Source Step = 21.2812%
Source Step = 21.7868%
Source Step = 22.2924%
vernier = 0.0250282
Source Step = 22.8739%
Source Step = 23.6323%
Source Step = 24.3907%
Source Step = 25.1492%
Source Step = 25.9076%
vernier = 0.0375423
Source Step = 26.7419%
Source Step = 27.8795%
Source Step = 29.0172%
Source Step = 30.1548%
Source Step = 31.2924%
vernier = 0.0563135
Source Step = 32.487%
Source Step = 34.1934%
Source Step = 35.8999%
Source Step = 37.6064%
Source Step = 39.3129%
Source Step = 41.0193%
vernier = 0.0844703
Source Step = 43.579%
Source Step = 46.1387%
Source Step = 48.6984%
Source Step = 51.2581%
Source Step = 53.8179%
vernier = 0.126705
Source Step = 57.5294%
Source Step = 57.9314%
Starting source stepping with srcstepmethod=1
Source Step = 3.0303%
Source Step = 15.1752%
vernier = 0.000976562
Source stepping failed

Pseudo Transient succeeded in finding the operating point at 32.2579 s.
Total elapsed time: 51.307 seconds.

